New Transformer.TR1 phases=3 windings=2 Tap=1 Buses=[slack secondary] Conns=[Delta Wye] kVs=[10 0.430] kVAs=[800 800] %Rs=[0.5 0.5] rneut=0.1 XHL=3.9 %noloadloss=0 %imag=0